Circuit: * C:\Users\DRA\Dropbox\My PC (DESKTOP-MR1852M)\Documents\Differentiator using Op-Amp.asc

Limiting rise time of source v1 to 5e-006
Limiting fall time of source v1 to 5e-006
Direct Newton iteration for .op point succeeded.

Date: Sat Feb 19 22:50:30 2022
Total elapsed time: 0.054 seconds.

tnom = 27
temp = 27
method = modified trap
totiter = 167
traniter = 122
tranpoints = 39
accept = 34
rejected = 5
matrix size = 9
fillins = 3
solver = Normal
Matrix Compiler1: 1.26 KB object code size  0.2/0.1/[0.1]
Matrix Compiler2: off  [0.1]/0.1/0.2

