Circuit: * C:\Users\DRA\Dropbox\My PC (DESKTOP-MR1852M)\Documents\Integrator using Op-amp.asc

Direct Newton iteration for .op point succeeded.

Date: Sat Feb 19 22:06:44 2022
Total elapsed time: 0.055 seconds.

tnom = 27
temp = 27
method = modified trap
totiter = 78
traniter = 32
tranpoints = 17
accept = 17
rejected = 0
matrix size = 10
fillins = 4
solver = Normal
Matrix Compiler1: 1.52 KB object code size
Matrix Compiler2:      81 opcodes
