Circuit: * C:\Users\DRA\Dropbox\My PC (DESKTOP-MR1852M)\Documents\inverting Op-Amp.asc

Direct Newton iteration for .op point succeeded.

Date: Sun Feb 20 08:54:00 2022
Total elapsed time: 0.096 seconds.

tnom = 27
temp = 27
method = modified trap
totiter = 1169
traniter = 1161
tranpoints = 382
accept = 263
rejected = 119
matrix size = 11
fillins = 2
solver = Normal
Matrix Compiler1: 570 bytes object code size  0.3/0.1/[0.1]
Matrix Compiler2: 1.00 KB object code size  0.2/0.2/[0.1]

