Circuit: * C:\Users\DRA\Dropbox\My PC (DESKTOP-MR1852M)\Downloads\4-bit full adder.asc

WARNING: Less than two connections to node SUM0.  This node is used by A2.
WARNING: Less than two connections to node SUM1.  This node is used by A7.
WARNING: Less than two connections to node SUM2.  This node is used by A12.
WARNING: Less than two connections to node SUM3.  This node is used by A17.
WARNING: Less than two connections to node CARRY3.  This node is used by A20.
Direct Newton iteration for .op point succeeded.

Date: Thu Mar 24 10:36:39 2022
Total elapsed time: 0.102 seconds.

tnom = 27
temp = 27
method = modified trap
totiter = 2087
traniter = 2082
tranpoints = 1042
accept = 1042
rejected = 0
matrix size = 38
fillins = 0
solver = Normal
Matrix Compiler1: 684 bytes object code size  0.1/0.1/[0.1]
Matrix Compiler2: 1.57 KB object code size  0.1/0.2/[0.1]

