Circuit: * C:\Users\DRA\Dropbox\My PC (DESKTOP-MR1852M)\Downloads\Draft3.asc

WARNING: Node NC_01 is floating.

WARNING: Less than two connections to node N004.  This node is used by R2.
Increasing .dc sweep number of steps per decade from 0.5 to 1.

Date: Sun Mar 27 19:30:03 2022
Total elapsed time: 0.055 seconds.

tnom = 27
temp = 27
method = trap
totiter = 34
traniter = 0
tranpoints = 0
accept = 0
rejected = 0
matrix size = 11
fillins = 3
solver = Normal
Matrix Compiler1: 504 bytes object code size
Matrix Compiler2: 773 bytes object code size
