Circuit: * C:\Users\DRA\Dropbox\My PC (DESKTOP-MR1852M)\Documents\Clipper and clamper.asc

Direct Newton iteration for .op point succeeded.

Date: Thu Feb 10 20:28:52 2022
Total elapsed time: 0.065 seconds.

tnom = 27
temp = 27
method = modified trap
totiter = 2248
traniter = 2243
tranpoints = 1058
accept = 1048
rejected = 10
matrix size = 6
fillins = 0
solver = Normal
Matrix Compiler1:       9 opcodes  0.0/[0.0]/0.0
Matrix Compiler2: 380 bytes object code size  0.0/0.0/[0.0]

