Circuit: * C:\Users\DRA\Dropbox\My PC (DESKTOP-MR1852M)\Documents\Draft3.asc

Direct Newton iteration for .op point succeeded.

Date: Thu Feb 10 09:29:34 2022
Total elapsed time: 0.056 seconds.

tnom = 27
temp = 27
method = modified trap
totiter = 2093
traniter = 2088
tranpoints = 1044
accept = 1044
rejected = 0
matrix size = 6
fillins = 0
solver = Normal
Matrix Compiler1: 182 bytes object code size  0.1/0.0/[0.0]
Matrix Compiler2:      32 opcodes  0.1/[0.0]/0.1

