Circuit: * C:\Users\DRA\Dropbox\My PC (DESKTOP-MR1852M)\Documents\Draft2.asc

.OP point found by inspection.

Date: Wed Feb 09 23:03:56 2022
Total elapsed time: 0.063 seconds.

tnom = 27
temp = 27
method = modified trap
totiter = 2145
traniter = 2145
tranpoints = 1060
accept = 1056
rejected = 4
matrix size = 4
fillins = 1
solver = Normal
Matrix Compiler1: 226 bytes object code size  0.0/0.0/[0.0]
Matrix Compiler2:      24 opcodes  0.0/[0.0]/0.0

