Circuit: * C:\Users\DRA\Dropbox\My PC (DESKTOP-MR1852M)\Documents\Draft4.asc

.OP point found by inspection.

Date: Thu Feb 10 09:41:13 2022
Total elapsed time: 0.083 seconds.

tnom = 27
temp = 27
method = modified trap
totiter = 2560
traniter = 2560
tranpoints = 1182
accept = 1124
rejected = 58
matrix size = 6
fillins = 0
solver = Normal
Matrix Compiler1: 236 bytes object code size  0.1/0.0/[0.0]
Matrix Compiler2: off  [0.0]/0.0/0.1

