Circuit: * C:\Users\DRA\Dropbox\My PC (DESKTOP-MR1852M)\Documents\half wave rectifier without C.asc

.OP point found by inspection.

Date: Wed Feb 09 15:17:21 2022
Total elapsed time: 0.078 seconds.

tnom = 27
temp = 27
method = modified trap
totiter = 2150
traniter = 2150
tranpoints = 1058
accept = 1054
rejected = 4
matrix size = 3
fillins = 0
solver = Normal
Matrix Compiler1: off  [0.0]/0.0/0.0
Matrix Compiler2: 175 bytes object code size  0.0/0.0/[0.0]

